17
Coordinates from ORCA-job cccn_scan
  C   -0.18733878208383     -0.96383536318222     -1.88674956526373
  C   0.47847637862472     -0.12382037802394     -0.97524942135299
  C   -1.47403399144988     -1.44817796196316     -1.60635065854026
  C   -0.14995659780169      0.25487057413653      0.24206202670381
  C   -2.13577202663046     -1.01873771365642     -0.44216875198175
  C   -1.45420294646745     -0.22530039178044      0.49109795002963
  H   -3.15409868530669     -1.36067121873870     -0.23109612035253
  H   -1.89330934085347     -0.00528775796412      1.46878724759170
  C   0.67365802129992      0.50748698313805      1.50127494773386
  H   0.30120940449684     -1.21406821480381     -2.83626476672012
  N   1.59471989539980      0.69361439907120     -1.39485655496240
  O   0.19284345006791      0.41266032694823      2.61165120872065
  O   1.97452157606409      0.78772087231368      1.30587497405520
  H   2.12015827662315      0.84355258207882      0.32878046801704
  H   -1.97455087668918     -2.11370732231992     -2.31744850265470
  H   1.23453728440990      1.58766950823395     -1.73402935681861
  H   2.10927008281232      0.26072571642428     -2.16515286165380
