17
Coordinates from ORCA-job cccn_scan
  C   -0.26978299278488     -0.85430874181090     -1.95951390298260
  C   0.43565491944106     -0.10220989881194     -1.00251611512813
  C   -1.53131141096925     -1.39014536648076     -1.66116148119680
  C   -0.13410155676545      0.13461399618446      0.27206003902997
  C   -2.11879258696630     -1.12728056237241     -0.41121654412597
  C   -1.41255373158393     -0.39125869888522      0.54922622217075
  H   -3.11097007594381     -1.52482607221332     -0.17503572962676
  H   -1.82066631177571     -0.22146045264227      1.54948866723117
  C   0.63471076431422      0.66784343109022      1.47321620868811
  H   0.17737140678740     -1.01462135892399     -2.94782856062704
  N   1.67654619479157      0.56048832954603     -1.33370369670658
  O   0.09695767689987      0.80545181117540      2.55480246477716
  O   1.93718572149706      0.93672975167840      1.28900743562129
  H   2.14107487711957      0.77197229470442      0.33303956709731
  H   -2.06261039208229     -1.98389758024631     -2.41213008272230
  H   1.47858654065997      1.51680184152826     -1.64218508219179
  H   2.13883207987689      0.09080191639193     -2.11538714675677
