17
Coordinates from ORCA-job cccn_scan
  C   -0.21708911177028     -0.92749994643736     -1.91534573030919
  C   0.46197014904241     -0.11936293153863     -0.98528943710943
  C   -1.49551820230887     -1.42906850935982     -1.62850139855400
  C   -0.14797056061198      0.21319353118793      0.25179535840497
  C   -2.13285170124159     -1.05645829651718     -0.43172326114871
  C   -1.44291209455213     -0.28357017680412      0.51210885457202
  H   -3.14239360109385     -1.41763138645235     -0.21090167996114
  H   -1.87080885621056     -0.08073712995992      1.49818104320728
  C   0.66364064183090      0.56442977479439      1.49400884419118
  H   0.25834275481188     -1.14768064650927     -2.87874240916163
  N   1.62511851550112      0.64829987894673     -1.36948444336565
  O   0.16732421371012      0.54943260227683      2.60256184910565
  O   1.96356017970418      0.84132789554492      1.29822896213918
  H   2.12607850124293      0.82217472376043      0.32109165086132
  H   -2.00628106559802     -2.06957652328583     -2.35502724722982
  H   1.31968877256829      1.56589593382821     -1.70205075512436
  H   2.12623258749145      0.20152584643703     -2.14074793796666
